BEGIN BULK
GRID,1,,1.0
GRID,2,,-0.5,0.8660254038
GRID,3,,-0.5,-0.8660254038
GRID,4,,0.0,0.0,2.0
GRID,5,,0.0,0.0,4.0
CBEAM,1,1,1,4
CBEAM,2,1,2,4
CBEAM,3,1,3,4
CBEAM,4,2,4,5
PBEAML,1,1,MSCBML0,TUBE,,,,,0.03,0.026,,YES,1.0,0.03,0.026
PBEAML,2,1,MSCBML0,TUBE,,,,,0.05,0.045,,YES,1.0,0.05,0.045
MAT1,1,210000000000,80769230769,0.3,7850
FORCE,1,5,,1000,1.0
SPC1,,123,1,2,3
ENDDATA
